/*--------------------------------*- C++ -*----------------------------------*\
  =========                 |
  \\      /  F ield         | OpenFOAM: The Open Source CFD Toolbox
   \\    /   O peration     | Website:  https://openfoam.org
    \\  /    A nd           | Version:  9
     \\/     M anipulation  |
\*---------------------------------------------------------------------------*/
FoamFile
{
    format      ascii;
    class       dictionary;
    object      blockMeshDict;
}
// * * * * * * * * * * * * * * * * * * * * * * * * * * * * * * * * * * * * * //

convertToMeters 0.1;

vertices
(
    (0 0 0)
    (1 9.96573e-03 -2.617695e-04)
    (1 9.996573e-03 2.617695e-04)
    (2.820000e+00 0 0)
    (2.82000e+00 9.996573e-03 -2.617695e-04)
    (2.820000e+00 9.996573e-03 2.617695e-04)
);

blocks
(
    hex (0 1 2 0 3 4 5 3) (50 1 200) simpleGrading (2.000000e-01 1 1)
);

edges
(
	arc 1 2 (0 1.000000e-02 0)
	arc 4 5 (2.820000e+00 1.000000e-02 0)
);

boundary
(
    axis
    {
        type empty;
        faces
        (
            (0 3 3 0)
        );
    }
    top
    {
        type wall;
        faces
        (
            (2 5 4 1)
        );
    }
    inlet
    {
        type patch;
        faces
        (
            (0 0 2 1)
        );
    }
    outlet
	{
		type patch;
		faces
		(
			(3 4 5 3)
		);
	}
wedgeFront
	{
	type wedge;
	faces 
	(
		(0 3 5 2)
	);
	}
wedgeBack
	{
	type wedge;
	faces 
	(
		(0 1 4 3)
	);
	}
);			 

mergePatchPairs
(
);

// ************************************************************************* //
